Version 4.1
SHEET 1 1560 680
WIRE -32 64 -208 64
WIRE 368 64 176 64
WIRE 560 64 432 64
WIRE -288 128 -400 128
WIRE -208 128 -208 64
WIRE -192 128 -208 128
WIRE -64 128 -112 128
WIRE 32 144 32 64
WIRE 32 144 0 144
WIRE 96 144 32 144
WIRE 176 144 176 64
WIRE 256 144 176 144
WIRE 416 144 336 144
WIRE -64 160 -80 160
WIRE 560 160 560 64
WIRE 560 160 480 160
WIRE 784 160 560 160
WIRE 416 176 400 176
WIRE 32 192 32 144
WIRE 560 224 560 160
WIRE 784 240 784 160
WIRE -80 272 -80 160
WIRE 32 272 -80 272
WIRE 400 304 400 176
WIRE 560 304 400 304
WIRE 560 336 560 304
WIRE 784 400 784 320
FLAG 32 352 0
FLAG -112 192 0
FLAG 336 208 0
FLAG 560 416 0
FLAG 784 480 0
FLAG -400 208 0
SYMBOL res -192 112 R90
WINDOW 0 0 56 VBottom 2
WINDOW 3 32 56 VTop 2
SYMATTR InstName R1
SYMATTR Value 15.8k
SYMBOL cap 32 48 R90
WINDOW 0 0 32 VBottom 2
WINDOW 3 32 32 VTop 2
SYMATTR InstName C1
SYMATTR Value 100nF
SYMBOL OpAmps\\opamp -32 208 M180
SYMATTR InstName U1
SYMBOL res 16 176 R0
SYMATTR InstName R2
SYMATTR Value 1.52k
SYMBOL res 16 256 R0
SYMATTR InstName R3
SYMATTR Value 10k
SYMBOL res 192 128 R90
WINDOW 0 0 56 VBottom 2
WINDOW 3 32 56 VTop 2
SYMATTR InstName R4
SYMATTR Value 15.8k
SYMBOL cap 432 48 R90
WINDOW 0 0 32 VBottom 2
WINDOW 3 32 32 VTop 2
SYMATTR InstName C2
SYMATTR Value 100nF
SYMBOL res 352 128 R90
WINDOW 0 0 56 VBottom 2
WINDOW 3 32 56 VTop 2
SYMATTR InstName R5
SYMATTR Value 15.8k
SYMBOL OpAmps\\opamp 448 224 M180
SYMATTR InstName U2
SYMBOL res -96 112 R90
WINDOW 0 0 56 VBottom 2
WINDOW 3 32 56 VTop 2
SYMATTR InstName R6
SYMATTR Value 15.8k
SYMBOL cap -128 128 R0
SYMATTR InstName C3
SYMATTR Value 100nF
SYMBOL cap 320 144 R0
SYMATTR InstName C4
SYMATTR Value 100nF
SYMBOL res 544 208 R0
SYMATTR InstName R7
SYMATTR Value 12.35k
SYMBOL res 544 320 R0
SYMATTR InstName R8
SYMATTR Value 10k
SYMBOL res 768 224 R0
SYMATTR InstName R9
SYMATTR Value 10k
SYMBOL res 768 384 R0
SYMATTR InstName R10
SYMATTR Value 6.3k
SYMBOL voltage -400 112 R0
WINDOW 123 24 124 Left 2
WINDOW 39 0 0 Left 0
SYMATTR InstName V1
SYMATTR Value ""
SYMATTR Value2 AC 1
SYMBOL OpAmps\\opamp 1168 96 R0
SYMATTR InstName U3
SYMBOL OpAmps\\LTC1992 1440 176 R0
SYMATTR InstName U4
TEXT 296 -48 Left 2 !.lib opamp.sub
TEXT -184 -64 Left 2 !.ac dec 1000 1 10000
